test/data/matpower/SNEM2000_acdc_mesh.m
%% MATPOWER Case Format : Version 2
function mpc = NEM
mpc.version = '2';

%%-----  Power Flow Data  -----%%
%% system MVA base
mpc.baseMVA = 100;
%% bus data
%    bus_i    type    Pd    Qd    Gs    Bs    area    Vm    Va    baseKV    zone    Vmax    Vmin
mpc.bus = [
	1	1	0.0	0.0	0.0	0.0	4	1.0552030936706605	59.60076987583756	275.0	1	1.1	0.9				
	2	1	0.0	0.0	0.0	0.0	4	1.0184494215255007	58.68094565521712	66.0	1	1.1	0.9				
	3	1	0.0	0.0	0.0	0.0	1	1.0900410378915346	-13.413485071289283	0.55	1	1.1	0.9				
	4	1	9.355660670996603	-1.7874206358314504	0.0	0.0	1	1.053190889642782	-20.278126792423425	132.0	1	1.1	0.9				
	5	1	0.0	0.0	0.0	0.0	5	1.0930818327246203	-4.151988880233813	220.0	1	1.1	0.9				
	6	1	7.06217190745063	3.0790575548005803	0.0	0.0	4	1.0207355888927097	58.78974884851674	66.0	1	1.1	0.9				
	7	1	0.0	0.0	0.0	0.0	4	1.0231839153083468	56.48425714942764	66.0	1	1.1	0.9				
	8	1	6.846033021336422	1.185359802347422	0.0	0.0	1	1.0598756783641583	-11.857067568371795	11.0	1	1.1	0.9				
	9	1	37.37692512202407	3.7867029066234	0.0	0.0	1	1.0514680162036936	-13.634599804762848	66.0	1	1.1	0.9				
	10	1	8.46790593026625	4.542128824828191	0.0	0.0	4	1.0176609642024415	56.122445277324054	11.0	1	1.1	0.9				
	11	1	0.0	0.0	0.0	0.0	3	1.0239775015089392	0.8304466525339699	110.0	1	1.1	0.9				
	12	1	56.8872802143828	25.158841662301302	0.0	48.61590218264612	3	1.0534363647191787	-16.70636765940583	110.0	1	1.1	0.9				
	13	1	11.674597249693331	4.07840301825218	0.0	0.0	3	1.0617122768260625	-22.790774244444503	11.0	1	1.1	0.9				
	14	1	0.0	0.0	0.0	0.0	1	1.0383353492288336	-18.967744324927665	132.0	1	1.1	0.9				
	15	1	0.0	0.0	0.0	0.0	4	0.9961527506472776	66.61863302870519	132.0	1	1.1	0.9				
	16	1	0.0	0.0	0.0	0.0	2	0.9977996340208287	-12.538396737722284	33.0	1	1.1	0.9				
	17	1	0.0	0.0	0.0	0.0	4	1.069945940653357	57.20333669133973	66.0	1	1.1	0.9				
	18	1	0.0	0.0	0.0	-0.33366009899999943	4	1.0229123873720718	56.69239748977048	66.0	1	1.1	0.9				
	19	1	20.0074444905052	6.466879342899561	0.0	0.0	3	1.0086470321563474	-24.575906311218	11.0	1	1.1	0.9				
	20	1	0.0	0.0	0.0	0.0	4	1.0032826461641837	59.30361943636944	66.0	1	1.1	0.9				
	21	1	0.0	0.0	0.0	0.0	1	1.072997532680083	-34.886024708863864	132.0	1	1.1	0.9				
	22	1	0.0	0.0	0.0	0.0	1	1.0262539421373504	-2.091346973424168	66.0	1	1.1	0.9				
	23	1	7.293867577355731	3.06889022315601	0.0	0.0	4	1.0227889653045925	54.73121857611591	11.0	1	1.1	0.9				
	24	1	18.59483333485271	7.6610123497149	0.0	0.0	3	1.0459365221534866	-23.803819581135254	11.0	1	1.1	0.9				
	25	2	0.0	0.0	0.0	0.0	1	1.0992479426505508	4.007472768155571	0.6899999999999998	1	1.1	0.9				
	26	1	0.8770092328009201	2.26961497681802	0.0	0.0	4	1.0519500807246367	62.183502694539285	132.0	1	1.1	0.9				
	27	1	49.9697314549242	9.64136439354392	0.0	0.0	2	1.0311597563684332	-7.265691179352792	66.0	1	1.1	0.9				
	28	1	0.0	0.0	0.0	0.0	1	1.0875979991728701	-1.9144694191024523	220.0	1	1.1	0.9				
	29	1	330.69317943798796	104.07458328287463	0.0	0.0	2	1.0317108055204092	-30.034283531253905	66.0	1	1.1	0.9				
	30	2	0.041755911774933284	0.0395732937566936	0.0	0.0	1	0.9937755052148596	1.4426025959088526	16.0	1	1.1	0.9				
	31	1	0.0	0.0	0.0	-34.6324332985561	1	1.0423807424735847	-4.552378809667297	220.0	1	1.1	0.9				
	32	1	9.75895882505178	1.5392968715541069	0.0	0.0	1	1.0722924375616916	-8.610358246162045	11.0	1	1.1	0.9				
	33	1	2.5110759851943705	1.7956627605275202	0.0	0.0	4	0.9737422996483976	50.034507418546745	132.0	1	1.1	0.9				
	34	1	13.453758310799312	4.711496790331882	0.0	0.0	4	1.0240047424363492	57.488283169314705	66.0	1	1.1	0.9				
	35	1	14.197918590656943	3.7203230835887613	0.0	0.0	4	0.9943722210134465	54.96040435600583	66.0	1	1.1	0.9				
	36	1	0.0	0.0	0.0	0.0	4	0.9791842935782015	57.51178718948689	66.0	1	1.1	0.9				
	37	1	6.493231088791969	0.450657078794064	0.0	0.0	2	1.0221032457961479	-8.350596361748696	66.0	1	1.1	0.9				
	38	1	0.0	0.0	0.0	0.0	5	0.9716159287071766	-12.262239104266639	110.0	1	1.1	0.9				
	39	1	0.0	0.0	0.0	0.0	2	1.0814776714934284	-3.0814351097784565	220.0	1	1.1	0.9				
	40	1	0.0	0.0	0.0	0.0	2	1.0865270324534695	-1.3502500596491345	11.0	1	1.1	0.9				
	41	1	430.36496573833654	53.94334374504909	0.0	0.0	1	1.0517579812941071	-20.633520768002207	132.0	1	1.1	0.9				
	42	1	0.0	0.0	0.0	0.0	2	1.0399457985902185	-9.045712073854803	66.0	1	1.1	0.9				
	43	1	15.20818631760552	17.736786945767513	0.0	14.308682867739398	3	1.0114470397964126	-23.88104080110869	11.0	1	1.1	0.9				
	44	1	0.0	0.0	0.0	0.0	5	1.0555350281896076	-11.6280310164534	220.0	1	1.1	0.9				
	45	2	0.788296720283572	0.0	0.0	0.0	3	0.930551995805948	-26.741969125001287	11.0	1	1.1	0.9				
	46	2	0.09111050326647241	0.0927051996761467	0.0	0.0	1	0.9550348363260462	11.508604849588274	15.4	1	1.1	0.9				
	47	1	0.0	0.0	0.0	0.0	2	1.0654590290267347	-18.819940089175834	500.0	1	1.1	0.9				
	48	1	0.0	0.0	0.0	0.0	3	1.0807948645228194	-1.4073981548708834	275.0	1	1.1	0.9				
	49	1	0.0	0.0	0.0	0.0	1	1.0439858999048357	-16.684176707518883	132.0	1	1.1	0.9				
	50	1	0.0	0.0	0.0	0.0	1	1.0477001047064411	-15.295661371630356	330.0	1	1.1	0.9				
	51	1	19.212638828279452	4.42512560178912	0.0	0.0	1	1.0652668633587612	-12.917517307562742	132.0	1	1.1	0.9				
	52	2	18.341554469353003	10.3636909979163	0.0	0.0	1	0.9734740329582553	8.01500056137019	22.0	1	1.1	0.9				
	53	1	0.0	0.0	0.0	0.0	4	1.0439290698411856	56.97407565721331	66.0	1	1.1	0.9				
	54	1	10.2681210531095	3.7292921931214105	0.0	0.0	4	1.0353544514047894	54.31455790636555	11.0	1	1.1	0.9				
	55	1	0.0	0.0	0.0	0.0	3	0.9944272973826097	-18.128714159791887	132.0	1	1.1	0.9				
	56	2	0.0	0.0	0.0	0.0	4	0.9845733226835556	57.51178706816374	11.5	1	1.1	0.9				
	57	1	6.488551926604201	4.97643151054973	0.0	0.0	1	1.1198126053985846	1.573586645537561	33.0	1	1.2	0.8				
	58	1	0.0	0.0	0.0	0.0	1	1.0886265405038285	-11.893116460351834	0.55	1	1.1	0.9				
	59	1	40.0287122888974	22.0998052462132	0.0	0.0	1	1.0534558794433837	-19.859963414662555	132.0	1	1.1	0.9				
	60	2	26.1777880304224	19.7905713920539	0.0	0.0	3	0.9798170479882873	6.775762445162845	19.0	1	1.1	0.9				
	61	1	-0.23610117125269	0.0	0.0	-3.91829091666266	1	1.0287453120872998	-3.233595995596937	0.6899999999999998	1	1.1	0.9				
	62	2	0.0	0.0	0.0	0.0	5	1.043340968254973	-2.228679357860516	11.0	1	1.1	0.9				
	63	1	0.0	0.0	0.0	0.0	1	1.0980261533500848	-7.544539193414764	132.0	1	1.1	0.9				
	64	1	39.134712248537596	16.9439584413141	0.0	0.0	1	1.0465979489854456	-19.186535984244248	132.0	1	1.1	0.9				
	65	1	18.173941410299157	6.30852069486659	0.0	0.0	4	0.9938174733004442	53.341002390142904	11.0	1	1.1	0.9				
	66	1	0.0	0.0	0.0	0.0	5	1.0610931967661743	-9.537412817315712	110.0	1	1.1	0.9				
	67	1	2.93367640063595	0.029366440789774097	0.0	0.0	1	1.0356224313657496	-2.5665404583113465	22.0	1	1.1	0.9				
	68	1	0.0	0.0	0.0	0.0	2	1.0008326296400551	2.0538953900419195	17.0	1	1.1	0.9				
	69	1	196.2046264271701	39.8853895251268	0.0	0.0	2	1.0607169391979305	-28.859686420406167	66.0	1	1.1	0.9				
	70	1	4.19199413618487	0.158280233575124	0.0	0.0	4	1.0206927034031625	57.53639515380697	66.0	1	1.1	0.9				
	71	1	1.541569736731471	0.635675921807158	0.0	0.0	4	0.9891954243704938	59.55215979426482	33.0	1	1.1	0.9				
	72	1	32.03763642093009	15.022891364196841	0.0	0.0	4	1.0062619833186148	55.03207001211985	11.0	1	1.1	0.9				
	73	1	0.0	0.0	0.0	0.0	3	1.0393114566573045	0.474188321948018	110.0	1	1.1	0.9				
	74	1	11.186850288082379	5.37348015239737	0.0	0.0	5	1.0078056468822316	-6.791521817552474	6.6	1	1.1	0.9				
	75	1	5.512170804402	-0.297153097662144	0.0	0.0	5	1.0221913777087113	-10.853877532124873	22.0	1	1.1	0.9				
	76	2	4.31874350848887	0.07453176079317932	0.0	0.0	4	1.0506824850482095	66.63046267871009	15.75	1	1.1	0.9				
	77	1	0.0	0.0	0.0	0.0	5	1.10000000393818	-2.230626568989896	220.0	1	1.1	0.9				
	78	1	0.0	0.0	0.0	0.0	3	1.0495062915276592	-1.1879303303377964	132.0	1	1.1	0.9				
	79	1	70.0829089402803	-5.051231327439799	0.0	0.0	1	1.054474376119807	-22.25107332448872	33.0	1	1.1	0.9				
	80	1	0.0	0.0	0.0	0.0	3	1.034542558936577	-20.157749008911228	110.0	1	1.1	0.9				
	81	1	0.0	0.0	0.0	0.0	3	1.0454968846674	-19.332631478868365	110.0	1	1.1	0.9				
	82	2	0.0	0.0	0.0	0.0	1	1.020219061342507	4.027081541693724	0.6899999999999998	1	1.1	0.9				
	83	1	57.7295707898397	14.189142892166739	0.0	8.030441348254676	1	1.0443715213082265	-13.554191041303756	66.0	1	1.1	0.9				
	84	1	17.5632361167267	3.5442949379365896	0.0	0.0	1	1.0455418101942635	-5.2632524784328085	66.0	1	1.1	0.9				
	85	1	30.311047289708597	8.8233872045598	0.0	0.0	3	1.0590328038661996	-16.800572879072377	66.0	1	1.1	0.9				
	86	1	0.0	0.0	0.0	0.0	3	1.0260551433323533	-6.881681146269045	10.5	1	1.1	0.9				
	87	1	0.0	0.0	0.0	0.0	3	0.9944319370599894	-18.05593684584854	132.0	1	1.1	0.9				
	88	1	0.0	0.0	0.0	0.0	3	1.0634288178661224	-14.678793997735012	275.0	1	1.1	0.9				
	89	2	0.0	0.0	0.0	0.0	5	1.0010147446662723	3.214311229421604	11.0	1	1.1	0.9				
	90	1	0.0	0.0	0.0	0.0	3	1.0417553575596885	-22.57215028037893	110.0	1	1.1	0.9				
	91	1	0.0	0.0	0.0	0.0	1	1.0900411058856616	-13.413485420258057	11.0	1	1.1	0.9				
	92	1	50.2121305000638	26.702488916025104	0.0	0.0	1	1.051012600005431	-19.932589394286303	132.0	1	1.1	0.9				
	93	1	0.0	0.0	0.0	0.0	3	1.0006709201909298	-30.90456222247859	132.0	1	1.1	0.9				
	94	2	32.7047949975725	24.864146277261202	0.0	0.0	1	1.019275638003266	10.566630968407042	23.0	1	1.1	0.9				
	95	1	0.0	0.0	0.0	0.0	4	0.9314407258559434	28.116055965907005	275.0	1	1.1	0.9				
	96	1	16.65690244254144	1.29427581817019	0.0	0.0	4	1.0140752554093335	48.13447711844848	11.0	1	1.1	0.9				
	97	1	0.0	0.0	0.0	29.894232766237096	5	1.0557240859375123	-10.335294265265492	110.0	1	1.1	0.9				
	98	1	0.0	0.0	0.0	0.0	2	0.9968067997292324	2.451246788438827	15.0	1	1.1	0.9				
	99	1	0.0	0.0	0.0	0.0	3	1.0260396915080097	-18.459071971944528	132.0	1	1.1	0.9				
	100	1	250.886682327865	75.2659098594328	0.0	44.461175359315206	2	1.0139379132071198	-26.52620314677905	66.0	1	1.1	0.9				
	101	1	5.07065556205446	2.821128374923114	0.0	0.0	4	0.9813259122376998	51.198212990267926	132.0	1	1.1	0.9				
	102	1	32.8164347707108	4.9383484389306895	0.0	0.0	5	1.0367219579863571	-12.198126408925253	22.0	1	1.1	0.9				
	103	1	0.0	0.0	0.0	0.0	5	1.0289527046516143	-5.422540372937508	110.0	1	1.1	0.9				
	104	2	0.0	0.0	0.0	0.0	5	1.043542569256356	-2.228679354874565	11.0	1	1.1	0.9				
	105	1	0.0	0.0	0.0	0.0	4	1.0491997471018324	62.32402633126429	132.0	1	1.1	0.9				
	106	1	0.0	0.0	0.0	0.0	1	1.0609588260952734	-3.3066923316100567	132.0	1	1.1	0.9				
	107	1	0.0	0.0	0.0	0.0	3	1.0624224398646667	-14.458833481383857	275.0	1	1.1	0.9				
	108	1	4.969286691016694	2.3123035960519642	0.0	0.0	5	1.0408631506374935	-10.297772058920591	11.0	1	1.1	0.9				
	109	1	74.2226343486775	22.05492030875552	0.0	-99.2070401832461	1	1.0384685146228199	-18.312915325793806	132.0	1	1.1	0.9				
	110	1	0.0	0.0	0.0	0.0	4	1.0184045689300871	57.38668705348613	132.0	1	1.1	0.9				
	111	1	0.0	0.0	0.0	0.0	1	1.0686909993778775	-12.810077487383738	132.0	1	1.1	0.9				
	112	1	0.0	0.0	0.0	0.0	5	1.0271869016887136	-6.7036142227751006	110.0	1	1.1	0.9				
	113	2	33.7906400303283	25.010466589327603	0.0	0.0	1	1.0512383097893583	12.63134622317338	23.0	1	1.1	0.9				
	114	1	12.944638185298071	4.48511734599243	0.0	0.0	4	1.02293825165952	54.09241912645883	11.0	1	1.1	0.9				
	115	1	0.0	0.0	0.0	0.0	1	1.1000000102197174	1.5735866455375753	11.5	1	1.1	0.9				
	116	1	-1.88206920590084	11.076387805541788	0.0	0.0	1	1.0460956722649386	-5.211994393450843	66.0	1	1.1	0.9				
	117	1	23.836942642017902	8.62703598491233	0.0	0.0	3	1.0103432286812104	-8.304795354939275	33.0	1	1.1	0.9				
	118	1	0.0	0.0	0.0	-5.310486417617648	4	0.9681902292013609	66.6970908246293	11.0	1	1.1	0.9				
	119	1	20.9627419086049	7.30465038572508	0.0	0.0	4	1.030085649332679	52.084238743887866	11.0	1	1.1	0.9				
	120	1	243.0495142466644	66.2045387597053	0.0	0.0	2	1.014168419733411	-25.441571708816095	66.0	1	1.1	0.9				
	121	1	10.86834700245257	2.67710046144575	0.0	0.0	4	1.0248663649711245	54.49598768139692	11.0	1	1.1	0.9				
	122	1	0.08670604601501997	-0.0777118948905263	0.0	0.0	4	1.0738330230613398	57.61142288357708	11.0	1	1.1	0.9				
	123	1	0.0	0.0	0.0	0.0	4	1.0508330890873596	57.652260732842805	66.0	1	1.1	0.9				
	124	1	0.0	0.0	0.0	0.0	1	1.0844628766487059	-14.307770550903056	33.0	1	1.1	0.9				
	125	1	0.0	0.0	0.0	0.0	3	1.0683694198039486	-13.653562913337005	275.0	1	1.1	0.9				
	126	1	0.0	0.0	0.0	13.158405933156597	4	1.0385074038083222	75.74628605144684	33.0	1	1.1	0.9				
	127	1	0.0	0.0	0.0	-0.19976287200000037	4	1.0124845520663157	60.893545074555675	66.0	1	1.1	0.9				
	128	1	103.47999373875709	15.980379844340142	0.0	0.0	2	1.028952082632976	-21.81621560844426	66.0	1	1.1	0.9				
	129	1	37.54978946485959	4.9914600100955	0.0	0.0	1	1.0246845400288478	-27.102931952754112	11.0	1	1.1	0.9				
	130	3	27.214341009702498	22.9900319056034	0.0	0.0	1	1.068004986700747	-3.855619015119489e-28	23.0	1	1.1	0.9				
	131	1	28.315677173559607	10.95326979663102	0.0	15.527084234760203	3	1.0431168237169637	-20.263522517587123	66.0	1	1.1	0.9				
	132	1	0.0	0.0	0.0	0.0	1	1.0662967285016416	-22.937666048047724	11.0	1	1.1	0.9				
	133	1	0.0	0.0	0.0	0.0	5	1.0442623676265157	-6.5725155055654305	110.0	1	1.1	0.9				
	134	1	0.0	0.0	0.0	-5.1662712919060105	4	1.0429976500098965	70.64392902582959	33.0	1	1.1	0.9				
	135	1	0.260013003669307	-3.3239035728246007	0.0	-8.583069842379542	3	1.0406603873431315	-11.086845446363597	132.0	1	1.1	0.9				
	136	1	0.0	0.0	0.0	0.0	5	1.023614895554647	-7.608984010527264	110.0	1	1.1	0.9				
	137	1	1.233107867487501	0.521934969551628	0.0	0.0	5	1.0143619004775835	-5.895296502965721	6.6	1	1.1	0.9				
	138	1	0.10484938732814	-0.0988192678010091	0.0	0.0	2	1.0226902562849336	-8.694844060642705	11.0	1	1.1	0.9				
	139	2	0.0	0.0	0.0	125.11007490009098	3	1.0722439576194938	-12.409300205684502	275.0	1	1.1	0.9				
	140	1	0.0	0.0	0.0	0.0	2	1.0233862547014887	-20.834795528074057	220.0	1	1.1	0.9				
	141	1	0.0	0.0	0.0	0.0	5	1.0634906590049347	-5.8984809789500146	110.0	1	1.1	0.9				
	142	1	0.0	0.0	0.0	0.0	3	1.0608272544127406	-11.995108853785132	132.0	1	1.1	0.9				
	143	1	0.0	0.0	0.0	51.53415665961797	3	1.0612347899893946	-15.985250779029718	110.0	1	1.1	0.9				
	144	1	14.062288434931599	-2.45112358235521	0.0	0.0	3	1.1000000084659727	-5.963706369665837	66.0	1	1.1	0.9				
	145	2	4.17243404168356	0.0695106546308845	0.0	0.0	4	1.0536103238385512	67.11850816595182	15.75	1	1.1	0.9				
	146	1	0.0	0.0	0.0	0.0	5	1.0516535732384777	-4.613486668597408	220.0	1	1.1	0.9				
	147	1	25.8624559360833	7.64724010672546	0.0	0.0	3	1.0284766472247648	-22.01441882582414	33.0	1	1.1	0.9				
	148	1	5.15964921649806	1.9974763753036502	0.0	0.0	4	0.9696992786841843	28.426468552428155	33.0	1	1.1	0.9				
	149	1	0.0	0.0	0.0	0.0	1	1.0527911070924805	-12.34913906782203	132.0	1	1.1	0.9				
	150	1	0.0	0.0	0.0	0.0	3	1.0300165807076789	-20.053613667334027	13.8	1	1.1	0.9				
	151	1	0.0	0.0	0.0	0.0	4	0.9743557521936244	59.748883489365575	66.0	1	1.1	0.9				
	152	2	0.0	0.0	0.0	0.0	4	1.1000000072601417	26.76635589942621	1.0	1	1.1	0.9				
	153	1	12.3075833534053	6.865138002198192	0.0	5.125302518252278	3	1.0082675908698062	-22.165413592784287	11.0	1	1.1	0.9				
	154	1	0.0	0.0	0.0	0.0	5	1.0278238723906423	-7.308310770520195	110.0	1	1.1	0.9				
	155	1	6.791062040939461	2.2136897100674027	0.0	0.0	2	1.0505624469014785	-21.71265514566398	11.0	1	1.1	0.9				
	156	1	0.0	0.0	0.0	0.0	4	1.0090763991348093	59.044595130199305	66.0	1	1.1	0.9				
	157	1	0.0	0.0	0.0	0.0	5	1.0353519527076818	-3.525055251262635	110.0	1	1.1	0.9				
	158	1	0.0	0.0	0.0	0.0	3	1.0914988238710508	-10.032461475207214	19.0	1	1.1	0.9				
	159	1	0.0	0.0	0.0	0.0	1	1.0555814883579864	-4.574822005566933	330.0	1	1.1	0.9				
	160	1	0.0	0.0	0.0	0.0	3	1.068562305824272	1.2445156938822586	132.0	1	1.1	0.9				
	161	1	19.296613620424743	14.86667231412451	0.0	0.0	4	1.002832157816115	60.67189770472734	66.0	1	1.1	0.9				
	162	1	2.3649401822946	-0.29877703061956	0.0	0.0	3	1.0440566749123044	-17.355971201674727	66.0	1	1.1	0.9				
	163	1	-12.616180889459711	0.0	0.0	-5.369636244967109	3	1.007166301454706	-15.606746180142048	11.0	1	1.1	0.9				
	164	1	96.0030458944804	20.01090188098545	0.0	0.0	1	1.0326182485240436	-18.587050520251914	66.0	1	1.1	0.9				
	165	1	0.0	0.0	0.0	-50.1496852527559	3	1.0847988030613929	-6.433883195489753	275.0	1	1.1	0.9				
	166	2	0.5021486751968038	0.0	0.0	0.0	3	0.930555525337673	-26.71831505509829	11.0	1	1.1	0.9				
	167	1	10.836691047943201	3.12044231271967	0.0	0.0	2	1.012608247743238	-12.458726830579412	66.0	1	1.1	0.9				
	168	1	11.48143100589393	2.2075569995827458	0.0	0.0	3	1.03973737549894	-19.708830471375528	110.0	1	1.1	0.9				
	169	1	0.0	0.0	0.0	0.0	1	1.0713819876251185	-12.435474301926458	132.0	1	1.1	0.9				
	170	1	78.4661207230591	3.5030830638563297	0.0	118.62339701503501	1	1.051207254514045	-18.676683582001747	132.0	1	1.1	0.9				
	171	1	7.61145394013934	3.3316030972668	0.0	0.0	4	1.0223706039577314	54.79321140673837	11.0	1	1.1	0.9				
	172	1	0.0	0.0	0.0	0.0	3	1.0808287559286882	-1.4143581901350712	132.0	1	1.1	0.9				
	173	1	0.0	0.0	0.0	0.0	4	0.9932048704882268	66.80238082755386	9.5	1	1.1	0.9				
	174	1	0.0	0.0	0.0	0.0	3	1.0265145919634875	-6.18314274520382	110.0	1	1.1	0.9				
	175	1	0.0	0.0	0.0	0.0	4	1.0504292413791083	57.194430595632596	275.0	1	1.1	0.9				
	176	1	0.0	0.0	0.0	0.0	4	1.0169359113851948	62.29639158418817	132.0	1	1.1	0.9				
	177	2	0.0	0.0	0.0	-31.195545157883288	4	0.990677847705333	4.924094128985672	275.0	1	1.1	0.9				
	178	1	11.88898872021139	2.2430057880878502	0.0	0.0	5	1.066557193855569	-11.385402277578716	22.0	1	1.1	0.9				
	179	1	0.0	0.0	0.0	15.134582585189499	1	1.0814098851153244	1.2631878049490117	33.0	1	1.1	0.9				
	180	1	0.0	0.0	0.0	0.0	1	1.0581927040160866	-4.251807369547891	33.0	1	1.1	0.9				
	181	1	3.5652287821649504	1.273702663153876	0.0	0.0	1	1.0530901136178166	-5.112820353991205	132.0	1	1.1	0.9				
	182	1	5.71820972677711	-2.3636429420402703	0.0	19.612628245726192	1	1.0309264642043174	-20.25768396098376	66.0	1	1.1	0.9				
	183	1	16.1554269528498	6.293710968911551	0.0	0.0	3	0.9908960564492564	-0.4295603328157196	33.0	1	1.1	0.9				
	184	2	0.0	0.0	0.0	0.0	4	1.0584872213137777	57.65226064293269	11.5	1	1.1	0.9				
	185	1	0.0	0.0	0.0	0.0	3	1.0537795856862708	-18.09973988050233	110.0	1	1.1	0.9				
	186	1	0.0	0.0	0.0	0.0	3	1.081359781947445	0.1580593790393471	275.0	1	1.1	0.9				
	187	1	47.724204605875	10.319712196929611	0.0	0.0	1	1.03783394748401	-19.091089933053194	132.0	1	1.1	0.9				
	188	1	0.0	0.0	0.0	0.0	3	1.045815439238649	-13.085727719099689	132.0	1	1.1	0.9				
	189	1	53.2578253711913	15.640309677941403	0.0	0.0	1	1.0188630856876104	-25.18726967548015	11.0	1	1.1	0.9				
	190	1	19.54863211292792	5.10075168020744	0.0	0.0	1	1.0551432678917299	-19.91122353527542	11.0	1	1.1	0.9				
	191	1	148.92321572476018	-3.763494021018969	0.0	0.0	1	1.0691274829198434	-14.401972721071436	132.0	1	1.1	0.9				
	192	1	11.15172447323142	5.853280208103355	0.0	0.0	2	0.9846678247840878	-18.980677919540767	22.0	1	1.1	0.9				
	193	1	0.0	0.0	0.0	0.0	3	1.0532474201884483	-19.087129004318125	110.0	1	1.1	0.9				
	194	1	6.80520660248659	-18.930748061146218	0.0	0.0	3	1.0579907642928275	-13.812096709128308	132.0	1	1.1	0.9				
	195	1	0.0	0.0	0.0	0.0	4	1.0426347662436404	56.83982592908627	66.0	1	1.1	0.9				
	196	1	2.1835738987048168	0.02881484689265501	0.0	0.0	1	1.0515290324292346	-5.103704497084033	132.0	1	1.1	0.9				
	197	1	0.0	0.0	0.0	0.0	1	1.0844426273856957	-14.307006109005794	33.0	1	1.1	0.9				
	198	1	0.0	0.0	0.0	0.0	3	1.052400185604801	-18.82911102591488	66.0	1	1.1	0.9				
	199	1	0.0	0.0	0.0	8.938981215453241	3	1.0634447559917095	-9.248311326087594	132.0	1	1.1	0.9				
	200	1	1.63484782455815	-0.20946032363339298	0.0	0.0	4	1.0587482586260124	61.03675810067344	33.0	1	1.1	0.9				
...
];

%% generator data
%    bus    Pg    Qg    Qmax    Qmin    Vg    mBase    status    Pmax    Pmin    Pc1    Pc2    Qc1min    Qc1max    Qc2min    Qc2max    ramp_agc    ramp_10    ramp_30    ramp_q    apf
mpc.gen = [
	130	756.9430984589675	205.14388038308874	370.0	-240.0	1.01556	848.605419222452	1	850.0	0.0															
	1845	577.7646977493721	145.97837313981194	450.0	-190.0	1.02626	911.2691769853241	1	919.9999999999999	0.0															
	292	847.0917689645275	-47.58535959391509	390.0	-260.0	0.999	914.521020424575	1	919.9999999999999	0.0															
	332	913.9424257962673	-39.98713330341421	450.0	-190.0	1.00251	915.047054038756	1	919.9999999999999	0.0															
	1376	-9.49322514962835e-7	-1.655101950550055	10.0	-10.0	1.01546	41.1012975615542	1	50.0	0.0															
	82	50.00000096426368	0.953474371260132	10.0	-10.0	1.01729	45.4628463133704	1	50.0	0.0															
	1254	30.000000964418643	-1.1410503102783172	10.0	-10.0	1.0126	28.477100057434303	1	30.0	0.0															
	899	826.2246964099837	53.0238755160581	440.00000000000006	-280.0	1.01122	853.1517461942509	1	860.0	0.0															
	94	781.3049056058079	39.62671323007626	430.0	-280.0	1.01837	828.587737327442	1	830.0000000000001	0.0															
	1584	830.0000009331427	181.53926341958945	430.0	-270.0	1.02332	824.9557847308	1	830.0000000000001	0.0															
	113	820.0000011013143	183.84349650542975	430.0	-280.0	1.01577	815.543500367366	1	819.9999999999999	0.0															
	30	110.00000106607959	-30.000000062570276	50.0	-30.0	1.02669	100.1029132	1	110.00000000000001	0.0															
	1635	100.00000096606043	-30.000000055899118	50.0	-30.0	1.01913	99.5320069049927	1	100.0	0.0															
	1916	100.00000096376489	3.349027520264647	30.0	-30.0	0.95282	90.5889255829901	1	100.0	0.0															
	52	332.0261832296754	-36.98226993750315	210.0	-110.00000000000001	0.97349	643.693602205161	1	650.0	0.0															
	1119	333.3399663947123	-33.9540924475475	220.00000000000003	-120.0	0.93205	645.28666725168	1	650.0	0.0															
	501	630.0000062645977	44.40039135412813	210.0	-100.0	0.97558	628.9849849482072	1	630.0	0.0															
	822	233.49878192071563	-46.67180056322842	90.0	-90.0	0.97897	343.073364149896	1	350.0	0.0															
	1386	204.08674868991602	-44.55279753717261	90.0	-90.0	0.97805	338.426626157714	1	340.0	0.0															
	46	241.2913069192566	-46.94659990538398	90.0	-90.0	0.98407	341.42365312634496	1	350.0	0.0															
	1009	223.32207105678856	-44.89681260065701	90.0	-90.0	0.98186	336.309318444924	1	340.0	0.0															
	1032	219.98934394536124	-44.20996300846794	90.0	-90.0	0.98377	333.510404178291	1	340.0	0.0															
	1892	233.41405265575239	-45.8624810917586	90.0	-90.0	0.98556	340.135576679022	1	350.0	0.0															
	555	840.0000075234937	-85.76775656985043	420.0	-180.0	0.99894	832.440999925509	1	840.0	0.0															
	255	550.0000047168695	-100.89052822257155	280.0	-130.0	0.98801	546.171568101272	1	550.0	0.0															
	210	50.00000096212208	6.920004244565463	20.0	-20.0	1.01502	46.1062790306169	1	50.0	0.0															
	933	50.000000962092706	18.56394719539368	20.0	-20.0	0.94492	46.5332684993628	1	50.0	0.0															
	1318	40.00000096586989	19.99999931649982	20.0	-30.0	0.91609	30.5123773106886	1	40.0	0.0															
	667	30.000000966545503	15.475018880639322	20.0	-20.0	1.04149	29.6002670221357	1	30.0	0.0															
	463	-8.538802859078926e-7	-13.718251734191156	100.0	-50.0	1.06298	210.894545504451	1	220.00000000000003	0.0															
	1034	-8.53880285912514e-7	-13.883629581405666	100.0	-50.0	1.0576	207.096134014428	1	210.0	0.0															
	1397	-8.53880285912514e-7	-13.698643024027184	100.0	-50.0	1.06354	209.43448703438	1	210.0	0.0															
	1753	-8.538802859078924e-7	-13.888943787221114	100.0	-50.0	1.06263	210.867295503616	1	220.00000000000003	0.0															
	1365	110.00000106479415	-24.89228801773818	30.0	-30.0	0.96354	108.81484992434301	1	110.00000000000001	0.0															
	1960	120.00000116475931	-20.434403730479232	30.0	-30.0	0.97025	110.332978322869	1	120.0	0.0															
	442	100.00000096475105	-15.714103557612141	40.0	-30.0	1.00307	96.48768505742771	1	100.0	0.0															
	909	100.00000096476369	-15.576483296782289	40.0	-40.0	1.01275	98.0252477621194	1	100.0	0.0															
	1649	100.0000009647479	-13.879686451400461	40.0	-40.0	1.02419	96.5074638390634	1	100.0	0.0															
	1272	3.528456652985208e-6	15.086496535843633	409.99999999999994	-160.0	1.01885	835.11956340652	1	840.0	0.0															
	537	3.501803819303934e-6	14.739266337377204	409.99999999999994	-160.0	1.00955	829.493444249593	1	830.0000000000001	0.0															
	446	60.00000096708264	-2.4791951096642837	10.0	-20.0	1.04459	52.3175148501992	1	60.0	0.0															
	1218	-7.999352587064763e-7	-12.679578281571919	10.0	-20.0	1.04206	51.9722352538258	1	60.0	0.0															
	961	90.00000095236358	32.616811896944085	40.0	-30.0	0.97085	86.4684665810317	1	90.0	0.0															
	1167	100.00000095230779	37.95681293247635	40.0	-40.0	0.9712	90.0339754913002	1	100.0	0.0															
	1210	100.00000058432525	-1.3086264373353789	10.0	-10.0	1.06431	98.9588547302624	1	100.0	0.0															
	1990	-9.78001304657731e-7	-3.2592985735240103	10.0	-10.0	1.05968	179.468505843356	1	180.0	0.0															
	1268	-9.619884436776708e-7	9.999999199345718	10.0	0.0	0.97713	23.38719214	1	30.0	0.0															
	1347	190.00000185152786	39.639088079130794	80.0	-50.0	0.97456	189.47538619999997	1	190.0	0.0															
	1793	35.071247556578584	-29.999996224354923	40.0	-30.0	1.00988	70.2652235693065	1	80.0	0.0															
	1083	4.555823434755037e-5	-29.99999617320394	40.0	-30.0	1.0122	71.0795632928889	1	80.0	0.0															
	1319	-9.474805461241278e-7	49.99999819328364	50.0	-50.0	0.95996	152.586644802825	1	160.0	0.0															
	637	110.00000106514305	49.99999809050667	50.0	-50.0	0.96635	108.100446894949	1	110.00000000000001	0.0															
	846	120.00000116509544	49.999998104447116	50.0	-50.0	0.97242	110.470307527771	1	120.0	0.0															
	1433	110.00000106512925	49.99999805470754	50.0	-50.0	0.96361	108.17915012921699	1	110.00000000000001	0.0															
	1115	110.0000010789928	15.6697168642945	40.0	-40.0	0.95738	107.325694307219	1	110.00000000000001	0.0															
	1913	110.00000107899046	15.765918948821072	50.0	-40.0	0.93803	107.571180567611	1	110.00000000000001	0.0															
	289	110.00000107898364	15.687099836043771	40.0	-40.0	0.94763	108.142809283454	1	110.00000000000001	0.0															
	1454	179.2616014180375	19.841721543679185	110.00000000000001	-40.0	0.98898	201.368655754533	1	210.0	0.0															
	827	181.47900783701732	21.289507889124806	110.00000000000001	-40.0	0.99603	201.766158744693	1	210.0	0.0															
	1693	640.000006379061	86.87212899857319	330.0	-210.0	1.00618	630.7525659587229	1	640.0	0.0															
	1668	-9.27538849273142e-7	15.249572416959406	310.0	-200.0	1.01171	692.4764770461251	1	700.0	0.0															
	1827	-9.275524398412097e-7	12.218590418016113	340.0	-110.00000000000001	0.9903	743.727576350409	1	750.0	0.0															
	1853	-9.275602751671836e-7	13.739099337096924	330.0	-110.00000000000001	0.99891	651.18307242021	1	660.0	0.0															
	1130	-9.27561351591313e-7	11.528866482588754	330.0	-110.00000000000001	0.99686	647.149878913164	1	650.0	0.0															
	1107	120.00000117692213	10.000000623914197	10.0	-10.0	1.06524	115.622949829081	1	120.0	0.0															
	589	70.00000097695833	20.00000059615114	20.0	-30.0	1.07291	69.6506796327507	1	70.0	0.0															
	651	50.000000976713046	10.000000606622104	10.0	-10.0	1.07773	46.581592120633	1	50.0	0.0															
	633	120.00000117684677	20.000000631934295	20.0	-20.0	1.07461	114.864380666002	1	120.0	0.0															
	1395	-7.361296073160671e-7	10.000000622857625	10.0	-10.0	1.07694	73.23516054158162	1	80.0	0.0															
	1415	120.0000011760987	20.000000646241467	20.0	-30.0	1.08353	113.018319971292	1	120.0	0.0															
	1692	110.00000105182615	19.99998406239214	20.0	-20.0	0.97517	100.974593	1	110.00000000000001	0.0															
	486	110.00000105179176	19.999982556881598	20.0	-20.0	0.97542	100.3645848	1	110.00000000000001	0.0															
	1311	110.00000105285403	19.999975617594007	20.0	-20.0	0.97015	100.148673	1	110.00000000000001	0.0															
	1348	-9.325950873853516e-7	130.00000035231207	130.0	-70.0	0.99413	352.29798341787	1	360.0	0.0															
	569	-9.325959082037097e-7	130.0000003536299	130.0	-70.0	0.989	353.577216341277	1	360.0	0.0															
	1588	2.048884994894793	0.009891379337418302	30.0	-20.0	0.99081	51.6119330540299	1	60.0	0.0															
	1703	630.0000062792726	-48.86273326019822	260.0	-170.0	0.96625	626.956900197733	1	630.0	0.0															
	1410	110.00000105182866	19.999982898833064	20.0	-20.0	0.97029	100.8087346	1	110.00000000000001	0.0															
	1907	12.055483713392857	18.537768353849295	190.0	-120.0	0.99185	476.643849198753	1	480.0	0.0															
	329	420.0000041791112	12.3918575460703	190.0	-120.0	0.97286	413.478915313189	1	420.0	0.0															
	1994	291.6886343714317	-21.819178285491006	200.0	-150.0	0.99223	481.327456929814	1	490.00000000000006	0.0															
	1889	292.192239341708	-20.846671539741372	200.0	-150.0	0.98956	475.496667556395	1	480.0	0.0															
	1213	-2.4248607571361287e-7	11.295962006621435	20.0	-20.0	1.02644	47.1338866906008	1	50.0	0.0															
	529	50.00000097835533	14.316139921652344	20.0	-20.0	1.02602	46.1283384356648	1	50.0	0.0															
	959	60.000000978318965	15.946805282853473	20.0	-20.0	1.02719	53.539829139953895	1	60.0	0.0															
	1921	70.00000097826636	18.037434287103174	20.0	-20.0	1.02592	66.5378691187571	1	70.0	0.0															
	973	60.00000096479723	11.01575460194722	30.0	-20.0	0.99783	56.4829927750938	1	60.0	0.0															
	1647	80.00000096464707	17.590008300828032	40.0	-20.0	1.0006	70.4010887629353	1	80.0	0.0															
	1996	-9.119507998011771e-7	-1.2133121960929525	50.0	-20.0	0.97188	55.8495727342218	1	60.0	0.0															
	273	250.00000246455096	19.999976877091402	20.0	-20.0	1.05379	240.12185123283402	1	250.0	0.0															
	1616	179.29732856882657	-41.73343062354501	390.0	-220.00000000000003	1.07483	989.914190588519	1	990.0	0.0															
	1255	50.00000096706535	-0.6551196148381186	20.0	-20.0	1.0021652453554195	47.830978430458394	1	50.0	0.0															
	1067	129.96526153039136	-17.032045751104434	150.0	-40.0	1.00238	327.941066311374	1	330.0	0.0															
	1315	134.63430192909684	-16.563115117004333	150.0	-50.0	1.01725	328.221132472344	1	330.0	0.0															
	1216	84.775815297589	-54.80972352590568	150.0	-70.0	1.0801	333.52684475354897	1	340.0	0.0															
	1839	82.02924895601895	-52.1726427019516	150.0	-60.0	1.07699	335.174992911071	1	340.0	0.0															
	608	330.0000032647391	21.443995614525544	150.0	-90.0	1.01396	323.952838555873	1	330.0	0.0															
	782	330.000003264756	12.594980738123173	150.0	-80.0	1.01738	321.767278076075	1	330.0	0.0															
	1858	430.0000042648966	63.288347782934984	180.0	-100.0	1.01525	422.530060780491	1	430.0	0.0															
	1701	430.00000426487503	63.1367798479422	190.0	-100.0	1.01123	422.44099449906497	1	430.0	0.0															
	305	420.0000041648731	62.24268722767394	190.0	-90.0	1.01182	416.57544194585597	1	420.0	0.0															
	628	419.9999108882773	63.81315577875179	190.0	-100.0	1.01054	411.61222137440905	1	420.0	0.0															
	1177	1.5071256830569852e-6	1.0695009742772075	190.0	-110.00000000000001	1.01726	428.869098612061	1	430.0	0.0															
	1417	420.0000041641622	50.42323892566283	190.0	-110.00000000000001	1.01886	413.432336428249	1	420.0	0.0															
	969	160.00000156463264	13.630546168597213	70.0	-50.0	1.01934	158.354711054701	1	160.0	0.0															
	1150	160.0000015646162	15.838540395803967	70.0	-50.0	1.01637	157.83937821052	1	160.0	0.0															
	1571	-9.488172105219759e-7	-6.099696003327447	70.0	-50.0	1.009	153.609530652668	1	160.0	0.0															
	1758	3.7769788682589706e-5	-19.354084984921137	160.0	-90.0	1.06955	375.605614145869	1	380.0	0.0															
	1381	-9.15482745703786e-7	-3.989399925121226	90.0	-60.0	0.96738	209.356691142824	1	210.0	0.0															
	1983	-9.154787428135842e-7	-3.610827727529368	90.0	-60.0	0.96634	205.18749745981802	1	210.0	0.0															
	910	630.00000626416	89.21790529611232	229.99999999999997	-120.0	0.98831	628.052562262723	1	630.0	0.0															
	1448	1.4876347745165506e-6	0.6335078360828605	220.00000000000003	-120.0	0.98849	638.170104924729	1	640.0	0.0															
	1580	646.963062245764	125.59834924254905	260.0	-210.0	0.97748	671.132690536673	1	680.0	0.0															
	228	-8.738820017787788e-7	-0.7491518271232331	20.0	-20.0	1.01974	35.3824854665436	1	40.0	0.0															
	1353	-8.729820201649752e-7	-0.7891087786494407	20.0	-20.0	1.02374	35.1063570457092	1	40.0	0.0															
	45	-8.821856959132925e-7	1.273855422734126	20.0	-10.0	0.94245	24.0841503046104	1	30.0	0.0															
	1704	-8.821439376581084e-7	1.2023906295657112	20.0	-10.0	0.9398	24.7130107383127	1	30.0	0.0															
	1087	-9.384042202086512e-7	1.3164599241023933	20.0	-10.0	0.94267	23.6974350718665	1	30.0	0.0															
	166	-8.821841276062313e-7	1.344390025705351	20.0	-10.0	0.93537	24.5818638734054	1	30.0	0.0															
	527	-8.822696623634047e-7	0.036920143464029616	10.0	-10.0	1.01518	8.7651425538864	1	10.0	0.0															
	1355	200.00000196666483	-9.52618592471855	90.0	-70.0	1.00347	195.96899449389898	1	200.0	0.0															
	1639	110.00000106436762	29.971076877041337	50.0	-40.0	0.92011	105.795435098372	1	110.00000000000001	0.0															
	1182	190.00000186412709	-23.945382579926672	80.0	-50.0	1.00491	189.74077837402	1	190.0	0.0															
	1479	40.000000963074065	3.8613730676587013	20.0	-20.0	0.99805	34.7002429670887	1	40.0	0.0															
	1298	230.00000226458192	27.548599811052	90.0	-60.0	0.98699	223.21536341426	1	229.99999999999997	0.0															
	1663	240.00000236456646	29.21373528825763	100.0	-50.0	0.98381	230.990713269683	1	240.0	0.0															
	439	230.00000226457814	26.94333852572268	90.0	-60.0	0.99662	225.23718779557402	1	229.99999999999997	0.0															
	1064	420.00000416472386	30.198239354829475	190.0	-90.0	1.0065	416.378375744331	1	420.0	0.0															
	826	56.90427320428627	-18.63865973273965	190.0	-90.0	1.00423	426.8220308	1	430.0	0.0															
	1289	51.250463973678215	-16.842436109819804	150.0	-130.0	0.99478	423.626371387602	1	430.0	0.0															
	1140	59.125611981063756	-21.43982923817813	190.0	-90.0	1.00248	515.843401	1	520.0	0.0															
	60	425.96434146453095	-93.11161655271627	229.99999999999997	-180.0	1.00366	579.8661901449091	1	580.0	0.0															
	1219	393.5221949521078	-85.35126116616212	229.99999999999997	-190.0	1.0051	566.034920721082	1	570.0	0.0															
	1175	-9.791087906804482e-7	-6.73696101936944	10.0	-10.0	0.99352	36.2839481079485	1	40.0	0.0															
	1786	-9.790589412443081e-7	19.99999934153113	20.0	-30.0	0.99873	121.983711870527	1	130.0	0.0															
	723	-9.790589446735598e-7	9.999999357864386	10.0	-10.0	0.9941	21.6044311194727	1	30.0	0.0															
	184	-9.791539588556872e-7	4.5449308883142185	30.0	-10.0	0.98064	36.2619373	1	40.0	0.0															
	603	-9.791539588556872e-7	4.6107439875088625	30.0	-10.0	0.98165	37.22684	1	40.0	0.0															
	774	-9.791539588556872e-7	4.88115410627554	30.0	-10.0	0.97347	36.524171100000004	1	40.0	0.0															
	441	-9.791539588556872e-7	5.143891438414602	30.0	-10.0	0.98277	37.0209491	1	40.0	0.0															
	56	-9.790532543353299e-7	2.526582389452121	30.0	-10.0	0.97606	37.2833587994021	1	40.0	0.0															
	1228	-9.732536663943545e-7	2.4947130464911123	30.0	-10.0	0.96603	37.528516240641	1	40.0	0.0															
	938	-9.790532543353299e-7	2.439390593494453	30.0	-10.0	0.9779	36.3901201120326	1	40.0	0.0															
	1450	-9.790532543353299e-7	2.429497610475983	30.0	-10.0	0.97693	36.1408798766029	1	40.0	0.0															
	1524	1.1587946477898368e-5	-19.999976568813356	10.0	-20.0	1.09411	89.9570863413974	1	90.0	0.0															
	145	199.9999966980734	89.99997914046091	90.0	-80.0	0.99553	198.828031233628	1	200.0	0.0															
	76	199.9999967204338	89.99997921394147	90.0	-80.0	0.99759	194.91053826953302	1	200.0	0.0															
	475	-9.79066483985887e-7	89.99997840470407	90.0	-80.0	0.99607	203.925937385531	1	210.0	0.0															
	922	-9.790681131896127e-7	16.674054159945317	70.0	0.0	1.00101	162.35489527462101	1	170.0	0.0															
	1927	159.99999647314417	49.007432738257066	70.0	0.0	0.99526	159.27815700299098	1	160.0	0.0															
	1402	-9.7906811132768e-7	13.445981901175971	70.0	0.0	1.00174	159.933895852882	1	160.0	0.0															
	1013	269.9999975732625	87.04721815189825	110.00000000000001	-50.0	1.00541	266.94065888878	1	270.0	0.0															
	1882	279.99999768595467	107.8266244650774	110.00000000000001	-50.0	1.01184	272.704311920097	1	280.0	0.0															
	1033	269.99999758867085	101.73607554477961	110.00000000000001	-50.0	1.00877	262.876889418112	1	270.0	0.0															
	284	179.99999885526907	-39.99999686495303	70.0	-40.0	1.01738	175.50502469390602	1	180.0	0.0															
	1904	89.99999784526943	-19.99999659601047	40.0	-20.0	1.01721	88.5158615344204	1	90.0	0.0															
	312	-9.643237310923385e-7	30.000000899457678	30.0	-20.0	1.0036	50.093021374605605	1	60.0	0.0															
	1593	-9.69196903870977e-7	7.978493231785904	10.0	-10.0	1.0024	34.96740921	1	40.0	0.0															
	1874	71.42837922398336	9.054652437944178	10.0	-10.0	1.00267	100.7653224	1	110.00000000000001	0.0															
	395	-9.690058497270413e-7	3.693228358126941	20.0	-30.0	1.01253	77.61118044	1	80.0	0.0															
	1887	110.00000103444829	-2.875551963339181	40.0	-40.0	0.96231	109.9329537	1	110.00000000000001	0.0															
	152	-9.692356725440262e-7	0.10929907409996846	10.0	-10.0	0.98213	50.331527630000004	1	60.0	0.0															
	1707	150.00000147694456	30.919270523344444	110.00000000000001	-90.0	0.98803	147.69696593489502	1	150.0	0.0															
	566	150.00000147690972	29.91822996339305	120.0	-110.00000000000001	0.98282	147.170128862932	1	150.0	0.0															
	1385	100.00000097695793	28.511547721051656	60.0	-40.0	0.9882	99.82682290775702	1	100.0	0.0															
	1021	60.00000097757078	5.9657509701988705	20.0	-20.0	1.05511	59.56099006	1	60.0	0.0															
	1987	-6.509757346033704e-7	3.8528054670061476	90.0	-80.0	0.98159	123.24446895776799	1	130.0	0.0															
	798	40.00000085773567	7.377406053791592	20.0	-20.0	0.94727	37.868305058335	1	40.0	0.0															
	1085	-1.1678880445253428e-7	-12.195029468783632	50.0	-30.0	0.99307	72.60313276841859	1	80.0	0.0															
	1472	200.00000197850002	-6.429743153753867	120.0	-40.0	1.05574	192.64760894081599	1	200.0	0.0															
	1942	100.00000097849113	-3.937461755725728	70.0	-20.0	1.05271	96.0025555250328	1	100.0	0.0															
	258	-8.496366489778085e-7	-0.7118935527293744	20.0	-10.0	1.05495	16.4278021572973	1	20.0	0.0															
	104	-8.496867710420662e-7	-3.954699073026793	20.0	-20.0	1.04821	40.33056631	1	50.0	0.0															
	62	-8.496867710409297e-7	-3.844406261343699	20.0	-20.0	1.05035	40.0795192	1	50.0	0.0															
	468	40.000000975384815	4.269815182304909	20.0	-10.0	1.00571	33.6463986921869	1	40.0	0.0															
	1937	40.000000975396446	4.209109388488606	20.0	-10.0	1.0064	33.3273031253414	1	40.0	0.0															
	316	40.000000975387344	4.211485359542182	20.0	-10.0	1.00365	34.233340868547096	1	40.0	0.0															
	752	40.00000081398996	-9.79601287599756	30.0	-10.0	1.03199	37.7499579498544	1	40.0	0.0															
	842	60.000000976151036	-2.010335577628093	40.0	-20.0	0.96138	53.9771218854003	1	60.0	0.0															
	1127	-8.195652262586439e-7	-14.40557641782535	70.0	-50.0	0.95645	169.174009550363	1	170.0	0.0															
	429	180.00000177626225	19.32468257507429	80.0	-70.0	0.9564	175.344738017768	1	180.0	0.0															
	1123	-8.195652262623638e-7	-15.123618838646081	80.0	-60.0	0.9492	168.12110569328098	1	170.0	0.0															
	1552	40.00000097793737	-29.999997328695716	40.0	-30.0	1.02356	33.7659113864647	1	40.0	0.0															
	1244	-6.275249685870226e-7	-9.999996935894071	20.0	-10.0	1.01721	36.76534479	1	40.0	0.0															
	1419	70.00000097702163	-13.751895038236746	70.0	-50.0	0.98842	67.9893259308301	1	70.0	0.0															
	1256	70.00000097723994	13.271206456751328	70.0	-40.0	0.98837	68.36997707287081	1	70.0	0.0															
	1897	70.00000097725521	12.236304873548912	70.0	-40.0	0.98685	66.6358637739904	1	70.0	0.0															
	862	70.00000097723425	13.208918343395334	70.0	-40.0	0.98994	67.2894188493956	1	70.0	0.0															
	1880	90.00000097430865	3.110855533694359	10.0	-20.0	1.07274	83.72531062298448	1	90.0	0.0															
	559	70.00000097742176	9.535439424796337	30.0	-20.0	0.98622	65.7624427797273	1	70.0	0.0															
	570	-6.519212917918329e-7	1.4596995158419017	20.0	-10.0	0.98727	36.1447293923702	1	40.0	0.0															
	494	40.00000097665022	-0.8208906528923436	20.0	-20.0	0.98153	32.9465583476471	1	40.0	0.0															
	1850	40.000000976666264	-0.8962035999374655	10.0	-20.0	1.01403	34.046855572122205	1	40.0	0.0															
	1086	-7.751417378650522e-7	-9.999962374494551	10.0	-10.0	1.00599	16.3866927560885	1	20.0	0.0															
	89	40.00000097666682	-1.5222429982058625	20.0	-10.0	0.99813	32.5552539895289	1	40.0	0.0															
	807	40.00000097667428	-1.4332336193662623	20.0	-10.0	1.00408	31.920388778904503	1	40.0	0.0															
	581	0.0	-149.99999904770686	320.0	-150.0	1.0605	1.08747929753736	1	0.0	0.0															
	25	80.0000009660215	0.0	0.0	0.0	1.07713	0.7938849320478039	1	80.0	0.0															
	1909	80.00000096511955	0.0	0.0	0.0	1.07705	0.7164935316257183	1	80.0	0.0															
	1544	60.00000096550858	-20.0000006670393	10.0	-20.0	1.08759	0.500407203184462	1	60.0	0.0															
...
];

%% branch data
%    f_bus    t_bus    r    x    b    rateA    rateB    rateC    ratio    angle    status    angmin    angmax
mpc.branch = [
	1893	1583	0.0213946048670181	0.04942146980714439	0.012801024095775597	129.0	129.0	129.0	0	0	1	-59.99999999999999	59.99999999999999	37.776371889129926	4.655024591560206	-37.48071165511965	-5.30679011094907				
	1893	1077	0.020236665886361197	0.050316143305972186	0.10562471664845893	135.0	135.0	135.0	0	0	1	-59.99999999999999	59.99999999999999	32.54252642141382	-14.311845692863312	-32.32433178184921	3.751376911569176				
	917	462	0.026853445793652002	0.19165742354521298	5.195117468480018e-5	43.0	43.0	43.0	0	0	1	-59.99999999999999	59.99999999999999	20.5648680556712	-4.551334110618069	-20.46251594246631	5.275771216341431				
	1286	462	0.026984079889560107	0.185702086980017	5.17387384688482e-5	42.0	42.0	42.0	0	0	1	-59.99999999999999	59.99999999999999	20.355388152304997	-4.289554034588069	-20.255197331241106	4.973012646144326				
	1058	1113	0.011122782782912299	0.0297112037291843	0.006220453130174425	141.0	141.0	141.0	0	0	1	-59.99999999999999	59.99999999999999	-99.02905336175148	12.871590157271223	100.00000086744956	-10.993960117688426				
	1058	970	0.045772095961356514	0.120590632657148	0.025792474726494402	140.0	140.0	140.0	0	0	1	-59.99999999999999	59.99999999999999	15.76859497108956	-24.671013971227456	-15.4536762973669	22.49640786532194				
	1058	983	0.006779413947917152	0.018607729760026597	0.004025052771484478	143.0	143.0	143.0	0	0	1	-59.99999999999999	59.99999999999999	65.29744864112098	-3.512843138200384	-65.0440186309322	3.7496984924093715				
	1632	1179	0.0011389550104285596	0.01393588748747199	1.6833172193448998	1342.0	1342.0	1342.0	0	0	1	-59.99999999999999	59.99999999999999	596.4474280071731	-208.98260476942707	-592.5078887544691	74.95076569471662				
	1632	1179	0.0011225049821915992	0.013771688338268497	1.6954215021408197	1344.0	1344.0	1344.0	0	0	1	-59.99999999999999	59.99999999999999	603.5959104775359	-210.91856539854038	-599.6199914872354	76.15278656751133				
	1332	1815	0.0006403316210620108	0.0064468902751826694	0.080071637497656	787.0	787.0	787.0	0	0	1	-59.99999999999999	59.99999999999999	404.20577944893967	104.14944686405896	-403.16177652744443	-102.16595384775945				
	1332	1815	0.000620334336382803	0.006148481834081931	0.08240736240510083	779.0	779.0	779.0	0	0	1	-59.99999999999999	59.99999999999999	423.9335183456517	108.61173944809069	-422.8219085868461	-106.37028415765839				
	1332	1709	0.0008590316504566002	0.008691190724875782	0.112796315229684	789.0	789.0	789.0	0	0	1	-59.99999999999999	59.99999999999999	436.74901844466456	-60.25735571004079	-435.20015820516454	63.792330993966274				
	1332	1572	0.0031186025418690404	0.03052345278941931	0.45626901837147793	773.0	773.0	773.0	0	0	1	-59.99999999999999	59.99999999999999	488.2743343251966	-68.1036861440131	-481.29782008659464	86.97991252676064				
	532	1427	0.0006390014028278651	0.0064548685555730016	0.09401233060830509	788.0	788.0	788.0	0	0	1	-59.99999999999999	59.99999999999999	-21.02959673234802	116.94984788493801	21.11801886255304	-126.42495562407615				
	532	1125	0.0014358749276801	0.014644579098475205	0.18420688904757598	793.0	793.0	793.0	0	0	1	-59.99999999999999	59.99999999999999	438.20676126997597	-37.541651651554226	-435.71443222292004	42.51087228415074				
	532	1855	0.0006980898858401917	0.006846981908912769	0.09338147855802613	774.0	774.0	774.0	0	0	1	-59.99999999999999	59.99999999999999	773.9999770878474	0.20245842819091864	-770.234144492721	26.404583128613986				
	581	952	0.00549684407743448	0.04001467715759991	0.5277011763906659	646.0	646.0	646.0	0	0	1	-59.99999999999999	59.99999999999999	136.5505135969705	-34.53576442625146	-135.69912628535468	-22.548661260227124				
	581	968	0.0036628589148653694	0.046574779405701004	0.7304052178330444	907.0	907.0	907.0	0	0	1	-59.99999999999999	59.99999999999999	-70.94198199595834	-30.623658001167126	71.10047519468385	-55.09670171487241				
	581	767	0.0024404891880895	0.029288513049949005	0.47137858199290905	875.0	875.0	875.0	0	0	1	-59.99999999999999	59.99999999999999	-71.018192292554	-31.50609092668219	71.1205932153874	-24.168466621571856				
	581	1022	0.00411569981152844	0.0332833799581951	0.405787904264694	689.0	689.0	689.0	0	0	1	-59.99999999999999	59.99999999999999	-54.11247263604041	36.42605964548646	54.339122822396604	-82.7448834728105				
	581	1022	0.005464298468891071	0.035343942727401906	0.43209820210204875	601.0	601.0	601.0	0	0	1	-59.99999999999999	59.99999999999999	-48.987301022067804	32.565856218943715	49.25190943395659	-82.12809617283982				
	465	751	0.00032143239948153506	0.0034259883954422506	0.039614513562890204	814.0	814.0	814.0	0	0	1	-59.99999999999999	59.99999999999999	-138.32421118382655	125.47826507479796	138.42981484358427	-128.60790748063422				
	465	1910	0.0029789123197607697	0.0213626300034765	0.2681391625330549	640.0	640.0	640.0	0	0	1	-59.99999999999999	59.99999999999999	-276.51581511048664	-26.784990483241707	278.63279012678265	12.723454311563545				
	465	1427	0.0011140258456952897	0.0129505473830168	0.14802050571879896	859.0	859.0	859.0	0	0	1	-59.99999999999999	59.99999999999999	414.8400262943132	-98.69327459155626	-412.97666247170383	104.27090278688375				
	668	374	0.0010885510705970199	0.0147748298170697	1.7006090545761405	1429.0	1429.0	1429.0	0	0	1	-59.99999999999999	59.99999999999999	-224.28695035568995	-122.19073794939428	224.7711523279618	-67.04490188360506				
	668	374	0.0011106263382062301	0.014144395822631203	1.6346730551440307	1375.0	1375.0	1375.0	0	0	1	-59.99999999999999	59.99999999999999	-234.320107857264	-118.38623233864018	234.85875395145754	-62.96966016626438				
	1299	1910	0.0003592095476724209	0.00485193630699255	0.09552678346910695	940.0	940.0	940.0	0	0	1	-59.99999999999999	59.99999999999999	85.14447215393108	41.72136283432899	-85.11381066531456	-51.86951757019719				
	1299	1910	0.00036659299122914716	0.004587482080457733	0.09496649899752864	898.0	898.0	898.0	0	0	1	-59.99999999999999	59.99999999999999	90.30115860493795	43.91355303764583	-90.26618661738178	-53.976276823007716				
	1299	1890	0.00239067232144671	0.017843493603628604	0.21502937305927303	656.0	656.0	656.0	0	0	1	-59.99999999999999	59.99999999999999	-225.53963399701655	45.66641879209642	226.7084467176051	-60.685689038396184				
	1299	243	0.00457242868733257	0.03418020142564271	0.4077533713723808	657.0	657.0	657.0	0	0	1	-59.99999999999999	59.99999999999999	508.4711912386701	-40.57482578619539	-497.79103228849556	75.35317371479115				
	436	374	0.0017476373474070298	0.0225862475770181	2.5475262015797195	1387.0	1387.0	1387.0	0	0	1	-59.99999999999999	59.99999999999999	588.6443517990194	-155.38649551321245	-583.4221253584462	-72.35196171576851				
	436	1559	0.0008477767884357367	0.011571809222622798	1.3597626684780695	1434.0	1434.0	1434.0	0	0	1	-59.99999999999999	59.99999999999999	706.133586460122	-140.65348101765179	-702.4608120933523	32.52803232461432				
	1513	712	0.00018765208803769203	0.0017710291671985806	0.02400285282507539	756.0	756.0	756.0	0	0	1	-59.99999999999999	59.99999999999999	257.1571457469169	94.10508373527156	-257.0294439596216	-95.5483616469055				
	1513	712	0.00018309565764572502	0.0017152461362816408	0.025621291051786402	753.0	753.0	753.0	0	0	1	-59.99999999999999	59.99999999999999	265.57517068564016	96.90377378616111	-265.4423554080683	-98.48664261017797				
	1513	1093	0.005062739744205489	0.047457793328152004	0.6801827127528468	753.0	753.0	753.0	0	0	1	-59.99999999999999	59.99999999999999	668.990813776832	0.4558714541474552	-648.4299770385571	117.4667817714687				
	1513	243	0.005640994447898819	0.054073627863782496	0.7772919484522188	764.0	764.0	764.0	0	0	1	-59.99999999999999	59.99999999999999	631.151344560864	-6.548068708754067	-610.7584829743776	116.24046496232039				
	1766	30	0.0037399777384898416	0.11522154571351088	0.006938854755392411	275.0	275.0	275.0	1.0	0.0	1	-59.99999999999999	59.99999999999999	-109.46697134739682	44.46255750045171	109.95824515430466	-30.039573356326972				
	356	343	0.00244661896547396	0.019350938101233905	0.22834600732551413	679.0	679.0	679.0	0	0	1	-59.99999999999999	59.99999999999999	9.391690751619338	7.819531192377351	-9.380493530957471	-32.531378678457514				
	356	1766	0.0054815638063252	0.0399409118961464	0.47973428935437484	646.0	646.0	646.0	0	0	1	-59.99999999999999	59.99999999999999	209.13876265898702	-15.404195943515086	-206.93380677811976	-20.23268994532412				
	343	1719	0.00410372099094093	0.029828231756910704	0.36499138505975703	1483.8375219635775	645.0	645.0	0	0	1	-59.99999999999999	59.99999999999999	-340.2350113108563	71.26636442623415	344.9398448015655	-76.26744176826432				
	343	793	0.0038084608243499	0.03183420282778101	0.37810937236825903	703.0	703.0	703.0	0	0	1	-59.99999999999999	59.99999999999999	-273.1268152999737	37.39753942403617	275.8704918126334	-55.210013649116874				
	343	760	0.00144971191580594	0.014868301946477504	0.19000741341426997	796.0	796.0	796.0	0	0	1	-59.99999999999999	59.99999999999999	99.73629692972973	7.778738588108138	-99.59864237854944	-26.848251725124662				
	343	758	0.0016278954856574497	0.0132292583637871	0.157336153255356	691.0	691.0	691.0	0	0	1	-59.99999999999999	59.99999999999999	92.47764940676433	-71.50666134375997	-92.28926587024382	55.90560364423337				
	952	1292	0.00709601896856702	0.054174033131706496	0.65326785024438	665.0	665.0	665.0	0	0	1	-59.99999999999999	59.99999999999999	5.6572381398157425	33.78729689575335	-5.340471179856859	-106.81472238272262				
	751	1766	0.00166386096210172	0.0135379533045636	0.15520439058789107	691.0	691.0	691.0	0	0	1	-59.99999999999999	59.99999999999999	-413.1495539121816	72.28446010433794	415.9041938816366	-66.44340911511104				
	751	1910	0.00274414111995976	0.020981657009152704	0.2617178211031481	666.0	666.0	666.0	0	0	1	-59.99999999999999	59.99999999999999	-258.8998817186407	-51.63893877666899	260.6548380416592	36.61692030793735				
	751	1855	0.00187141090140715	0.021428806004412503	0.27130704536082195	851.0	851.0	851.0	0	0	1	-59.99999999999999	59.99999999999999	523.2935618909439	-104.92245843217435	-518.362419903103	131.9251773727237				
	510	1979	0.005964429343834518	0.04615595429384241	0.559919314950723	670.0	670.0	670.0	0	0	1	-59.99999999999999	59.99999999999999	-93.84199201796837	32.59282618731487	94.5068192690434	-91.91105304395298				
	1364	269	0.000254828323430382	0.002517975235153461	1.2525606660218898	778.0	778.0	778.0	0	0	1	-59.99999999999999	59.99999999999999	-122.33494498785875	-80.80930881418631	122.36969731883246	-57.588761173478844				
	1364	269	0.000271172397340648	0.00264301669002743	1.24495918041561	771.0	771.0	771.0	0	0	1	-59.99999999999999	59.99999999999999	-116.5458484502137	-79.68304663889714	116.57940385929204	-57.88937314666356				
	1278	302	0.0342950132478122	0.09924133636807418	0.0261390999147855	148.0	148.0	148.0	0	0	1	-59.99999999999999	59.99999999999999	38.48376718914462	-8.291023337051383	-38.03688141817338	6.536777785977918				
	1278	699	0.035639496886978414	0.10653844324564596	0.02406568979042399	151.0	151.0	151.0	0	0	1	-59.99999999999999	59.99999999999999	43.67784850369026	-6.916752732643667	-43.088303687540694	5.8803472814097395				
	968	767	0.0013382712363200298	0.017440944915344907	0.26543850867785507	919.9999999999999	919.9999999999999	919.9999999999999	0	0	1	-59.99999999999999	59.99999999999999	71.19443460295139	-55.16534407466559	-71.12059321538744	24.168345621571955				
	968	1510	0.0036576786413243995	0.044478228680670306	0.6994230854636289	882.0	882.0	882.0	0	0	1	-59.99999999999999	59.99999999999999	-70.93225506483655	18.716268006350028	71.19803341862585	-97.62450376749062				
	968	1510	0.00364630651943386	0.044199198991008104	0.7333035897027699	881.0	881.0	881.0	0	0	1	-59.99999999999999	59.99999999999999	-71.36265473279867	17.086664683679523	71.63095110238746	-99.95355895535695				
	648	1855	0.0003668577104597351	0.00441661813680176	3.330163318504069	877.0	877.0	877.0	0	0	1	-59.99999999999999	59.99999999999999	-492.26292880679307	-80.64618567961718	493.1018024550601	-276.9532745518104				
	269	243	0.00025530614959993407	0.0030419849197376512	0.0372119472607039	871.0000000000001	871.0000000000001	871.0000000000001	0	0	1	-59.99999999999999	59.99999999999999	-262.508850902934	126.85816715206609	262.70588517034656	-128.62260856811892				
	269	243	0.00026262887000595193	0.0029070965867340594	0.037134825276170895	833.0	833.0	833.0	0	0	1	-59.99999999999999	59.99999999999999	-273.673179454771	134.51412518793578	273.89486452078876	-136.16383625703543				
	1363	1855	0.0005990839999169109	0.00585149085285217	0.08520547032542988	772.0	772.0	772.0	0	0	1	-59.99999999999999	59.99999999999999	345.8365791308454	-85.70520199322688	-345.14683552724847	83.08041506808742				
	1363	500	0.00360740342547465	0.033197096485666905	0.514430723322602	745.0	745.0	745.0	0	0	1	-59.99999999999999	59.99999999999999	-481.9623396002929	37.217871964953254	489.7497042597801	-22.32578840795312				
	749	1979	0.00399604540073648	0.030581321998375908	0.3795588746255081	666.0	666.0	666.0	0	0	1	-59.99999999999999	59.99999999999999	-137.25104661506796	-24.344021328710667	137.92756175707444	-13.012025971547281				
	749	1754	0.0016394406916201095	0.0128891051766779	0.15568176635422692	677.0	677.0	677.0	0	0	1	-59.99999999999999	59.99999999999999	32.188022441938166	18.5128302304818	-32.16188787422465	-35.57728175775979				
	712	1173	0.0006616731316100336	0.004931310835531909	0.07534584023475649	655.0	655.0	655.0	0	0	1	-59.99999999999999	59.99999999999999	317.8217078203743	-42.40931010394598	-317.20600241116404	38.70132485610105				
	712	1815	0.0030475391520839203	0.03176800784265111	0.40428603335089985	802.9999999999999	802.9999999999999	802.9999999999999	0	0	1	-59.99999999999999	59.99999999999999	655.9648848719345	49.807282340740564	-643.9135573567899	32.21517934558011				
	712	1022	0.005567214432419281	0.04080208764306131	0.5366600638017708	649.0	649.0	649.0	0	0	1	-59.99999999999999	59.99999999999999	138.77025360089186	-125.9976309041291	-137.32647722804106	75.6640043394586				
	712	1139	0.003376445538480949	0.03559826780126431	0.47936948058143286	809.0	809.0	809.0	0	0	1	-59.99999999999999	59.99999999999999	631.3740342258408	60.05117676777964	-618.9227842167593	19.800159409328828				
	50	1855	0.0004984658036660401	0.0052260588949895525	0.07084876054867645	806.0	806.0	806.0	0	0	1	-59.99999999999999	59.99999999999999	-181.09653841307454	-23.363823040941906	181.24719063913125	17.152507823050588				
	50	243	0.00048894178866595	0.004779740621322771	0.06421571918618488	773.0	773.0	773.0	0	0	1	-59.99999999999999	59.99999999999999	-175.24568344921582	-28.436183909506678	175.38524519715682	22.73833311314542				
	1719	793	0.0016177231878188407	0.013075334178902207	0.15598860032670206	688.0	688.0	688.0	0	0	1	-59.99999999999999	59.99999999999999	120.05876701207183	-50.27328029188147	-119.81329881752218	35.572034100265675				
	1719	1979	0.004230393194225061	0.031163470459792307	0.3978532764773349	651.0	651.0	651.0	0	0	1	-59.99999999999999	59.99999999999999	405.4165899780663	-148.67158797757497	-398.24891417366007	157.83137083199148				
	1719	758	0.00487603953066887	0.037748682541321	0.528233339417093	671.0	671.0	671.0	0	0	1	-59.99999999999999	59.99999999999999	307.24935627911003	-89.6885292069997	-302.75793758708403	67.36343190511015				
	1719	1146	0.0030880695344582204	0.022429178837193205	0.28348333942303405	645.0	645.0	645.0	0	0	1	-59.99999999999999	59.99999999999999	173.88986038585102	-81.88036967360517	-172.88473019137888	58.66635358694066				
	1910	758	0.004608929471296258	0.03800400496403689	0.46118647054224277	697.0	697.0	697.0	0	0	1	-59.99999999999999	59.99999999999999	-192.47185193216373	14.267057384288634	194.08551402724584	-51.66688799516596				
	1910	758	0.004585812630360851	0.03577098650301621	0.41855507495459193	674.0	674.0	674.0	0	0	1	-59.99999999999999	59.99999999999999	-204.02103169129586	20.453178855220454	205.8302335175775	-52.35925682292498				
	374	1559	0.0008832353375784117	0.011167770984761396	1.3441456838160801	1369.0	1369.0	1369.0	0	0	1	-59.99999999999999	59.99999999999999	-461.77410388802923	-75.47495459083635	463.4005472015839	-60.280113189195674				
	159	500	0.00022335998928956703	0.0021623495207090905	0.032297981452569395	768.0	768.0	768.0	0	0	1	-59.99999999999999	59.99999999999999	622.2295999510138	6.45446144552818	-621.4533535584396	-2.5336249307927936				
	159	500	0.000238167415531352	0.0023182632682465006	0.0307610085719302	771.0	771.0	771.0	0	0	1	-59.99999999999999	59.99999999999999	580.4105931305137	6.30690472328095	-579.6903943192171	-2.719646721962575				
	159	363	0.007106177316955288	0.051405020363783506	0.6380371500890237	644.0	644.0	644.0	0	0	1	-59.99999999999999	59.99999999999999	41.87496455619828	-29.60910417957464	-41.760885346541656	-40.28828549109551				
	882	243	0.0035206865253672006	0.036645195242716	0.506899248446147	802.9999999999999	802.9999999999999	802.9999999999999	0	0	1	-59.99999999999999	59.99999999999999	258.1556859326034	-73.39187425387045	-255.908922085134	41.53983805711472				
	882	864	0.0011094031405812098	0.012115308408995605	0.16344245562190196	827.0	827.0	827.0	0	0	1	-59.99999999999999	59.99999999999999	447.8043483119246	-19.784217500080878	-445.7386249464807	24.767574502842077				
	882	1709	0.00020985141811380198	0.0021308087728247006	0.02607113050868731	791.0	791.0	791.0	0	0	1	-59.99999999999999	59.99999999999999	-786.2817118826332	83.88982080341171	787.4998435433731	-74.33035987603401				
	1890	758	0.0025201892583891702	0.01983479489308781	0.25642106492965905	677.0	677.0	677.0	0	0	1	-59.99999999999999	59.99999999999999	-145.25090724246303	17.158218935325	145.75662742530488	-41.33170734434582				
	1173	1022	0.005233336294688658	0.03793305422313649	0.4776140188000159	644.0	644.0	644.0	0	0	1	-59.99999999999999	59.99999999999999	106.35325070464899	-126.65220113277333	-105.33691572057965	79.8109025163357				
	921	813	0.0007342707045497373	0.0017635611776928397	0.06341918928609089	132.0	132.0	132.0	0	0	1	-59.99999999999999	59.99999999999999	-52.1446072876835	10.4186994219702	52.16391345310329	-17.399804397554693				
...